version 2
run MCoA_ALL-0-20150322-19:44:12-12749
attr configname MCoA_ALL
attr datetime 20150322-19:44:12
attr experiment MCoA_ALL
attr inifile VoIPMCoACN.ini
attr iterationvars ""
attr iterationvars2 $repetition=0
attr measurement ""
attr network VoIPMCoAMulti
attr processid 12749
attr repetition 0
attr replication #0
attr resultdir results
attr runnumber 0
attr seedset 0

scalar VoIPMCoAMulti.Ra.networkLayer.ipv6 	IPv6_numDropNonActive 	0
scalar VoIPMCoAMulti.Ra.networkLayer.ipv6 	IPv6_Forwarded 	46
scalar VoIPMCoAMulti.Ra.eth[0].queue 	"packets received by queue" 	17
scalar VoIPMCoAMulti.Ra.eth[0].queue 	"packets dropped by queue" 	0
scalar VoIPMCoAMulti.Ra.eth[0].mac 	"simulated time" 	200
scalar VoIPMCoAMulti.Ra.eth[0].mac 	"txrate (Mb)" 	10
scalar VoIPMCoAMulti.Ra.eth[0].mac 	"full duplex" 	1
scalar VoIPMCoAMulti.Ra.eth[0].mac 	"frames sent" 	17
scalar VoIPMCoAMulti.Ra.eth[0].mac 	"frames rcvd" 	18
scalar VoIPMCoAMulti.Ra.eth[0].mac 	"bytes sent" 	1592
scalar VoIPMCoAMulti.Ra.eth[0].mac 	"bytes rcvd" 	1688
scalar VoIPMCoAMulti.Ra.eth[0].mac 	"frames from higher layer" 	17
scalar VoIPMCoAMulti.Ra.eth[0].mac 	"frames from higher layer dropped (iface down)" 	0
scalar VoIPMCoAMulti.Ra.eth[0].mac 	"frames dropped (bit error)" 	0
scalar VoIPMCoAMulti.Ra.eth[0].mac 	"frames dropped (not for us)" 	0
scalar VoIPMCoAMulti.Ra.eth[0].mac 	"frames passed up to HL" 	18
scalar VoIPMCoAMulti.Ra.eth[0].mac 	"PAUSE frames sent" 	0
scalar VoIPMCoAMulti.Ra.eth[0].mac 	"PAUSE frames rcvd" 	0
scalar VoIPMCoAMulti.Ra.eth[0].mac 	"frames/sec sent" 	0.085
scalar VoIPMCoAMulti.Ra.eth[0].mac 	"frames/sec rcvd" 	0.09
scalar VoIPMCoAMulti.Ra.eth[0].mac 	"bits/sec sent" 	63.68
scalar VoIPMCoAMulti.Ra.eth[0].mac 	"bits/sec rcvd" 	67.52
scalar VoIPMCoAMulti.Ra.eth[0].mac 	"rx channel idle (%)" 	99.9992672
scalar VoIPMCoAMulti.Ra.eth[0].mac 	"rx channel utilization (%)" 	0.0007328
scalar VoIPMCoAMulti.Ra.eth[0].mac 	"rx channel collision (%)" 	0
scalar VoIPMCoAMulti.Ra.eth[0].mac 	collisions 	0
scalar VoIPMCoAMulti.Ra.eth[0].mac 	backoffs 	0
scalar VoIPMCoAMulti.Ra.eth[0].encap 	"packets from higher layer" 	17
scalar VoIPMCoAMulti.Ra.eth[0].encap 	"frames from MAC" 	18
scalar VoIPMCoAMulti.Ra.eth[1].queue 	"packets received by queue" 	18
scalar VoIPMCoAMulti.Ra.eth[1].queue 	"packets dropped by queue" 	0
scalar VoIPMCoAMulti.Ra.eth[1].mac 	"simulated time" 	200
scalar VoIPMCoAMulti.Ra.eth[1].mac 	"txrate (Mb)" 	10
scalar VoIPMCoAMulti.Ra.eth[1].mac 	"full duplex" 	1
scalar VoIPMCoAMulti.Ra.eth[1].mac 	"frames sent" 	18
scalar VoIPMCoAMulti.Ra.eth[1].mac 	"frames rcvd" 	17
scalar VoIPMCoAMulti.Ra.eth[1].mac 	"bytes sent" 	1826
scalar VoIPMCoAMulti.Ra.eth[1].mac 	"bytes rcvd" 	1782
scalar VoIPMCoAMulti.Ra.eth[1].mac 	"frames from higher layer" 	18
scalar VoIPMCoAMulti.Ra.eth[1].mac 	"frames from higher layer dropped (iface down)" 	0
scalar VoIPMCoAMulti.Ra.eth[1].mac 	"frames dropped (bit error)" 	0
scalar VoIPMCoAMulti.Ra.eth[1].mac 	"frames dropped (not for us)" 	0
scalar VoIPMCoAMulti.Ra.eth[1].mac 	"frames passed up to HL" 	17
scalar VoIPMCoAMulti.Ra.eth[1].mac 	"PAUSE frames sent" 	0
scalar VoIPMCoAMulti.Ra.eth[1].mac 	"PAUSE frames rcvd" 	0
scalar VoIPMCoAMulti.Ra.eth[1].mac 	"frames/sec sent" 	0.09
scalar VoIPMCoAMulti.Ra.eth[1].mac 	"frames/sec rcvd" 	0.085
scalar VoIPMCoAMulti.Ra.eth[1].mac 	"bits/sec sent" 	73.04
scalar VoIPMCoAMulti.Ra.eth[1].mac 	"bits/sec rcvd" 	71.28
scalar VoIPMCoAMulti.Ra.eth[1].mac 	"rx channel idle (%)" 	99.9992328
scalar VoIPMCoAMulti.Ra.eth[1].mac 	"rx channel utilization (%)" 	0.0007672
scalar VoIPMCoAMulti.Ra.eth[1].mac 	"rx channel collision (%)" 	0
scalar VoIPMCoAMulti.Ra.eth[1].mac 	collisions 	0
scalar VoIPMCoAMulti.Ra.eth[1].mac 	backoffs 	0
scalar VoIPMCoAMulti.Ra.eth[1].encap 	"packets from higher layer" 	18
scalar VoIPMCoAMulti.Ra.eth[1].encap 	"frames from MAC" 	17
scalar VoIPMCoAMulti.Ra.eth[2].queue 	"packets received by queue" 	11
scalar VoIPMCoAMulti.Ra.eth[2].queue 	"packets dropped by queue" 	0
scalar VoIPMCoAMulti.Ra.eth[2].mac 	"simulated time" 	200
scalar VoIPMCoAMulti.Ra.eth[2].mac 	"txrate (Mb)" 	10
scalar VoIPMCoAMulti.Ra.eth[2].mac 	"full duplex" 	1
scalar VoIPMCoAMulti.Ra.eth[2].mac 	"frames sent" 	11
scalar VoIPMCoAMulti.Ra.eth[2].mac 	"frames rcvd" 	11
scalar VoIPMCoAMulti.Ra.eth[2].mac 	"bytes sent" 	982
scalar VoIPMCoAMulti.Ra.eth[2].mac 	"bytes rcvd" 	930
scalar VoIPMCoAMulti.Ra.eth[2].mac 	"frames from higher layer" 	11
scalar VoIPMCoAMulti.Ra.eth[2].mac 	"frames from higher layer dropped (iface down)" 	0
scalar VoIPMCoAMulti.Ra.eth[2].mac 	"frames dropped (bit error)" 	0
scalar VoIPMCoAMulti.Ra.eth[2].mac 	"frames dropped (not for us)" 	0
scalar VoIPMCoAMulti.Ra.eth[2].mac 	"frames passed up to HL" 	11
scalar VoIPMCoAMulti.Ra.eth[2].mac 	"PAUSE frames sent" 	0
scalar VoIPMCoAMulti.Ra.eth[2].mac 	"PAUSE frames rcvd" 	0
scalar VoIPMCoAMulti.Ra.eth[2].mac 	"frames/sec sent" 	0.055
scalar VoIPMCoAMulti.Ra.eth[2].mac 	"frames/sec rcvd" 	0.055
scalar VoIPMCoAMulti.Ra.eth[2].mac 	"bits/sec sent" 	39.28
scalar VoIPMCoAMulti.Ra.eth[2].mac 	"bits/sec rcvd" 	37.2
scalar VoIPMCoAMulti.Ra.eth[2].mac 	"rx channel idle (%)" 	99.9995928
scalar VoIPMCoAMulti.Ra.eth[2].mac 	"rx channel utilization (%)" 	0.0004072
scalar VoIPMCoAMulti.Ra.eth[2].mac 	"rx channel collision (%)" 	0
scalar VoIPMCoAMulti.Ra.eth[2].mac 	collisions 	0
scalar VoIPMCoAMulti.Ra.eth[2].mac 	backoffs 	0
scalar VoIPMCoAMulti.Ra.eth[2].encap 	"packets from higher layer" 	11
scalar VoIPMCoAMulti.Ra.eth[2].encap 	"frames from MAC" 	11
scalar VoIPMCoAMulti.CN[0].pingApp 	"Pings sent" 	0
scalar VoIPMCoAMulti.CN[0].networkLayer.ipv6 	IPv6_numDropNonActive 	0
scalar VoIPMCoAMulti.CN[0].networkLayer.ipv6 	IPv6_Forwarded 	14
scalar VoIPMCoAMulti.CN[0].eth[0].queue 	"packets received by queue" 	14
scalar VoIPMCoAMulti.CN[0].eth[0].queue 	"packets dropped by queue" 	0
scalar VoIPMCoAMulti.CN[0].eth[0].mac 	"simulated time" 	200
scalar VoIPMCoAMulti.CN[0].eth[0].mac 	"txrate (Mb)" 	10
scalar VoIPMCoAMulti.CN[0].eth[0].mac 	"full duplex" 	0
scalar VoIPMCoAMulti.CN[0].eth[0].mac 	"frames sent" 	14
scalar VoIPMCoAMulti.CN[0].eth[0].mac 	"frames rcvd" 	13
scalar VoIPMCoAMulti.CN[0].eth[0].mac 	"bytes sent" 	1122
scalar VoIPMCoAMulti.CN[0].eth[0].mac 	"bytes rcvd" 	1110
scalar VoIPMCoAMulti.CN[0].eth[0].mac 	"frames from higher layer" 	14
scalar VoIPMCoAMulti.CN[0].eth[0].mac 	"frames from higher layer dropped (iface down)" 	0
scalar VoIPMCoAMulti.CN[0].eth[0].mac 	"frames dropped (bit error)" 	0
scalar VoIPMCoAMulti.CN[0].eth[0].mac 	"frames dropped (not for us)" 	0
scalar VoIPMCoAMulti.CN[0].eth[0].mac 	"frames passed up to HL" 	13
scalar VoIPMCoAMulti.CN[0].eth[0].mac 	"PAUSE frames sent" 	0
scalar VoIPMCoAMulti.CN[0].eth[0].mac 	"PAUSE frames rcvd" 	0
scalar VoIPMCoAMulti.CN[0].eth[0].mac 	"frames/sec sent" 	0.07
scalar VoIPMCoAMulti.CN[0].eth[0].mac 	"frames/sec rcvd" 	0.065
scalar VoIPMCoAMulti.CN[0].eth[0].mac 	"bits/sec sent" 	44.88
scalar VoIPMCoAMulti.CN[0].eth[0].mac 	"bits/sec rcvd" 	44.4
scalar VoIPMCoAMulti.CN[0].eth[0].mac 	"rx channel idle (%)" 	99.9990208
scalar VoIPMCoAMulti.CN[0].eth[0].mac 	"rx channel utilization (%)" 	0.0009792
scalar VoIPMCoAMulti.CN[0].eth[0].mac 	"rx channel collision (%)" 	0
scalar VoIPMCoAMulti.CN[0].eth[0].mac 	collisions 	0
scalar VoIPMCoAMulti.CN[0].eth[0].mac 	backoffs 	0
scalar VoIPMCoAMulti.CN[0].eth[0].encap 	"packets from higher layer" 	14
scalar VoIPMCoAMulti.CN[0].eth[0].encap 	"frames from MAC" 	13
scalar VoIPMCoAMulti.hub 	"simulated time" 	200
scalar VoIPMCoAMulti.hub 	"messages handled" 	29
scalar VoIPMCoAMulti.hub 	messages/sec 	0.145
scalar VoIPMCoAMulti.HA.pingApp 	"Pings sent" 	0
scalar VoIPMCoAMulti.HA.networkLayer.ipv6 	IPv6_numDropNonActive 	101
scalar VoIPMCoAMulti.HA.networkLayer.ipv6 	IPv6_Forwarded 	3929
scalar VoIPMCoAMulti.HA.eth[0].queue 	"packets received by queue" 	18
scalar VoIPMCoAMulti.HA.eth[0].queue 	"packets dropped by queue" 	0
scalar VoIPMCoAMulti.HA.eth[0].mac 	"simulated time" 	200
scalar VoIPMCoAMulti.HA.eth[0].mac 	"txrate (Mb)" 	10
scalar VoIPMCoAMulti.HA.eth[0].mac 	"full duplex" 	1
scalar VoIPMCoAMulti.HA.eth[0].mac 	"frames sent" 	18
scalar VoIPMCoAMulti.HA.eth[0].mac 	"frames rcvd" 	17
scalar VoIPMCoAMulti.HA.eth[0].mac 	"bytes sent" 	1688
scalar VoIPMCoAMulti.HA.eth[0].mac 	"bytes rcvd" 	1592
scalar VoIPMCoAMulti.HA.eth[0].mac 	"frames from higher layer" 	18
scalar VoIPMCoAMulti.HA.eth[0].mac 	"frames from higher layer dropped (iface down)" 	0
scalar VoIPMCoAMulti.HA.eth[0].mac 	"frames dropped (bit error)" 	0
scalar VoIPMCoAMulti.HA.eth[0].mac 	"frames dropped (not for us)" 	0
scalar VoIPMCoAMulti.HA.eth[0].mac 	"frames passed up to HL" 	17
scalar VoIPMCoAMulti.HA.eth[0].mac 	"PAUSE frames sent" 	0
scalar VoIPMCoAMulti.HA.eth[0].mac 	"PAUSE frames rcvd" 	0
scalar VoIPMCoAMulti.HA.eth[0].mac 	"frames/sec sent" 	0.09
scalar VoIPMCoAMulti.HA.eth[0].mac 	"frames/sec rcvd" 	0.085
scalar VoIPMCoAMulti.HA.eth[0].mac 	"bits/sec sent" 	67.52
scalar VoIPMCoAMulti.HA.eth[0].mac 	"bits/sec rcvd" 	63.68
scalar VoIPMCoAMulti.HA.eth[0].mac 	"rx channel idle (%)" 	99.9993088
scalar VoIPMCoAMulti.HA.eth[0].mac 	"rx channel utilization (%)" 	0.0006912
scalar VoIPMCoAMulti.HA.eth[0].mac 	"rx channel collision (%)" 	0
scalar VoIPMCoAMulti.HA.eth[0].mac 	collisions 	0
scalar VoIPMCoAMulti.HA.eth[0].mac 	backoffs 	0
scalar VoIPMCoAMulti.HA.eth[0].encap 	"packets from higher layer" 	18
scalar VoIPMCoAMulti.HA.eth[0].encap 	"frames from MAC" 	17
scalar VoIPMCoAMulti.HA.eth[1].queue 	"packets received by queue" 	3911
scalar VoIPMCoAMulti.HA.eth[1].queue 	"packets dropped by queue" 	0
scalar VoIPMCoAMulti.HA.eth[1].mac 	"simulated time" 	200
scalar VoIPMCoAMulti.HA.eth[1].mac 	"txrate (Mb)" 	10
scalar VoIPMCoAMulti.HA.eth[1].mac 	"full duplex" 	1
scalar VoIPMCoAMulti.HA.eth[1].mac 	"frames sent" 	3911
scalar VoIPMCoAMulti.HA.eth[1].mac 	"frames rcvd" 	7
scalar VoIPMCoAMulti.HA.eth[1].mac 	"bytes sent" 	250306
scalar VoIPMCoAMulti.HA.eth[1].mac 	"bytes rcvd" 	304
scalar VoIPMCoAMulti.HA.eth[1].mac 	"frames from higher layer" 	3911
scalar VoIPMCoAMulti.HA.eth[1].mac 	"frames from higher layer dropped (iface down)" 	0
scalar VoIPMCoAMulti.HA.eth[1].mac 	"frames dropped (bit error)" 	0
scalar VoIPMCoAMulti.HA.eth[1].mac 	"frames dropped (not for us)" 	0
scalar VoIPMCoAMulti.HA.eth[1].mac 	"frames passed up to HL" 	7
scalar VoIPMCoAMulti.HA.eth[1].mac 	"PAUSE frames sent" 	0
scalar VoIPMCoAMulti.HA.eth[1].mac 	"PAUSE frames rcvd" 	0
scalar VoIPMCoAMulti.HA.eth[1].mac 	"frames/sec sent" 	19.555
scalar VoIPMCoAMulti.HA.eth[1].mac 	"frames/sec rcvd" 	0.035
scalar VoIPMCoAMulti.HA.eth[1].mac 	"bits/sec sent" 	10012.24
scalar VoIPMCoAMulti.HA.eth[1].mac 	"bits/sec rcvd" 	12.16
scalar VoIPMCoAMulti.HA.eth[1].mac 	"rx channel idle (%)" 	99.999856
scalar VoIPMCoAMulti.HA.eth[1].mac 	"rx channel utilization (%)" 	0.000144
scalar VoIPMCoAMulti.HA.eth[1].mac 	"rx channel collision (%)" 	0
scalar VoIPMCoAMulti.HA.eth[1].mac 	collisions 	0
scalar VoIPMCoAMulti.HA.eth[1].mac 	backoffs 	0
scalar VoIPMCoAMulti.HA.eth[1].encap 	"packets from higher layer" 	3911
scalar VoIPMCoAMulti.HA.eth[1].encap 	"frames from MAC" 	7
scalar VoIPMCoAMulti.AP_HA.wlan.mgmt 	"packets received by queue" 	5937
scalar VoIPMCoAMulti.AP_HA.wlan.mgmt 	"packets dropped by queue" 	0
scalar VoIPMCoAMulti.AP_HA.wlan.mac 	numSent 	24
scalar VoIPMCoAMulti.AP_HA.wlan.mac 	numSentWithoutRetry 	24
scalar VoIPMCoAMulti.AP_HA.wlan.mac 	numReceived 	23
scalar VoIPMCoAMulti.AP_HA.wlan.mac 	numSentBroadcast 	5913
scalar VoIPMCoAMulti.AP_HA.wlan.mac 	numReceivedBroadcast 	6
scalar VoIPMCoAMulti.AP_HA.wlan.mac 	numReceivedOther 	0
scalar VoIPMCoAMulti.AP_HA.wlan.mac 	numCollision 	0
scalar VoIPMCoAMulti.AP_HA.wlan.mac 	numGivenUp 	0
scalar VoIPMCoAMulti.AP_HA.wlan.mac 	numAckSend 	23
scalar VoIPMCoAMulti.AP_HA.wlan.mac 	numRetry 	0
scalar VoIPMCoAMulti.MN[0].pingApp 	"Pings sent" 	0
scalar VoIPMCoAMulti.MN[0].networkLayer.ipv6 	IPv6_numDropNonActive 	0
scalar VoIPMCoAMulti.MN[0].networkLayer.ipv6 	IPv6_Forwarded 	37
scalar VoIPMCoAMulti.MN[0].wlan[0].mgmt 	"packets received by queue" 	376
scalar VoIPMCoAMulti.MN[0].wlan[0].mgmt 	"packets dropped by queue" 	0
scalar VoIPMCoAMulti.MN[0].wlan[0].mac 	numSent 	19
scalar VoIPMCoAMulti.MN[0].wlan[0].mac 	numSentWithoutRetry 	19
scalar VoIPMCoAMulti.MN[0].wlan[0].mac 	numReceived 	20
scalar VoIPMCoAMulti.MN[0].wlan[0].mac 	numSentBroadcast 	357
scalar VoIPMCoAMulti.MN[0].wlan[0].mac 	numReceivedBroadcast 	3227
scalar VoIPMCoAMulti.MN[0].wlan[0].mac 	numReceivedOther 	2
scalar VoIPMCoAMulti.MN[0].wlan[0].mac 	numCollision 	0
scalar VoIPMCoAMulti.MN[0].wlan[0].mac 	numGivenUp 	0
scalar VoIPMCoAMulti.MN[0].wlan[0].mac 	numAckSend 	20
scalar VoIPMCoAMulti.MN[0].wlan[0].mac 	numRetry 	0
scalar VoIPMCoAMulti.MN[0].wlan[1].mgmt 	"packets received by queue" 	263
scalar VoIPMCoAMulti.MN[0].wlan[1].mgmt 	"packets dropped by queue" 	0
scalar VoIPMCoAMulti.MN[0].wlan[1].mac 	numSent 	17
scalar VoIPMCoAMulti.MN[0].wlan[1].mac 	numSentWithoutRetry 	17
scalar VoIPMCoAMulti.MN[0].wlan[1].mac 	numReceived 	18
scalar VoIPMCoAMulti.MN[0].wlan[1].mac 	numSentBroadcast 	246
scalar VoIPMCoAMulti.MN[0].wlan[1].mac 	numReceivedBroadcast 	3857
scalar VoIPMCoAMulti.MN[0].wlan[1].mac 	numReceivedOther 	0
scalar VoIPMCoAMulti.MN[0].wlan[1].mac 	numCollision 	0
scalar VoIPMCoAMulti.MN[0].wlan[1].mac 	numGivenUp 	0
scalar VoIPMCoAMulti.MN[0].wlan[1].mac 	numAckSend 	18
scalar VoIPMCoAMulti.MN[0].wlan[1].mac 	numRetry 	0
scalar VoIPMCoAMulti.MN[0].wlan[2].mgmt 	"packets received by queue" 	597
scalar VoIPMCoAMulti.MN[0].wlan[2].mgmt 	"packets dropped by queue" 	0
scalar VoIPMCoAMulti.MN[0].wlan[2].mac 	numSent 	12
scalar VoIPMCoAMulti.MN[0].wlan[2].mac 	numSentWithoutRetry 	12
scalar VoIPMCoAMulti.MN[0].wlan[2].mac 	numReceived 	11
scalar VoIPMCoAMulti.MN[0].wlan[2].mac 	numSentBroadcast 	585
scalar VoIPMCoAMulti.MN[0].wlan[2].mac 	numReceivedBroadcast 	1422
scalar VoIPMCoAMulti.MN[0].wlan[2].mac 	numReceivedOther 	0
scalar VoIPMCoAMulti.MN[0].wlan[2].mac 	numCollision 	0
scalar VoIPMCoAMulti.MN[0].wlan[2].mac 	numGivenUp 	0
scalar VoIPMCoAMulti.MN[0].wlan[2].mac 	numAckSend 	11
scalar VoIPMCoAMulti.MN[0].wlan[2].mac 	numRetry 	0
scalar VoIPMCoAMulti.MN[1].pingApp 	"Pings sent" 	0
scalar VoIPMCoAMulti.MN[1].networkLayer.ipv6 	IPv6_numDropNonActive 	0
scalar VoIPMCoAMulti.MN[1].networkLayer.ipv6 	IPv6_Forwarded 	4
scalar VoIPMCoAMulti.MN[1].wlan[0].mgmt 	"packets received by queue" 	5
scalar VoIPMCoAMulti.MN[1].wlan[0].mgmt 	"packets dropped by queue" 	0
scalar VoIPMCoAMulti.MN[1].wlan[0].mac 	numSent 	4
scalar VoIPMCoAMulti.MN[1].wlan[0].mac 	numSentWithoutRetry 	4
scalar VoIPMCoAMulti.MN[1].wlan[0].mac 	numReceived 	4
scalar VoIPMCoAMulti.MN[1].wlan[0].mac 	numSentBroadcast 	1
scalar VoIPMCoAMulti.MN[1].wlan[0].mac 	numReceivedBroadcast 	5929
scalar VoIPMCoAMulti.MN[1].wlan[0].mac 	numReceivedOther 	66
scalar VoIPMCoAMulti.MN[1].wlan[0].mac 	numCollision 	2
scalar VoIPMCoAMulti.MN[1].wlan[0].mac 	numGivenUp 	0
scalar VoIPMCoAMulti.MN[1].wlan[0].mac 	numAckSend 	4
scalar VoIPMCoAMulti.MN[1].wlan[0].mac 	numRetry 	0
scalar VoIPMCoAMulti.R1.networkLayer.ipv6 	IPv6_numDropNonActive 	400
scalar VoIPMCoAMulti.R1.networkLayer.ipv6 	IPv6_Forwarded 	7631
scalar VoIPMCoAMulti.R1.eth[0].queue 	"packets received by queue" 	17
scalar VoIPMCoAMulti.R1.eth[0].queue 	"packets dropped by queue" 	0
scalar VoIPMCoAMulti.R1.eth[0].mac 	"simulated time" 	200
scalar VoIPMCoAMulti.R1.eth[0].mac 	"txrate (Mb)" 	10
scalar VoIPMCoAMulti.R1.eth[0].mac 	"full duplex" 	1
scalar VoIPMCoAMulti.R1.eth[0].mac 	"frames sent" 	17
scalar VoIPMCoAMulti.R1.eth[0].mac 	"frames rcvd" 	18
scalar VoIPMCoAMulti.R1.eth[0].mac 	"bytes sent" 	1782
scalar VoIPMCoAMulti.R1.eth[0].mac 	"bytes rcvd" 	1826
scalar VoIPMCoAMulti.R1.eth[0].mac 	"frames from higher layer" 	17
scalar VoIPMCoAMulti.R1.eth[0].mac 	"frames from higher layer dropped (iface down)" 	0
scalar VoIPMCoAMulti.R1.eth[0].mac 	"frames dropped (bit error)" 	0
scalar VoIPMCoAMulti.R1.eth[0].mac 	"frames dropped (not for us)" 	0
scalar VoIPMCoAMulti.R1.eth[0].mac 	"frames passed up to HL" 	18
scalar VoIPMCoAMulti.R1.eth[0].mac 	"PAUSE frames sent" 	0
scalar VoIPMCoAMulti.R1.eth[0].mac 	"PAUSE frames rcvd" 	0
scalar VoIPMCoAMulti.R1.eth[0].mac 	"frames/sec sent" 	0.085
scalar VoIPMCoAMulti.R1.eth[0].mac 	"frames/sec rcvd" 	0.09
scalar VoIPMCoAMulti.R1.eth[0].mac 	"bits/sec sent" 	71.28
scalar VoIPMCoAMulti.R1.eth[0].mac 	"bits/sec rcvd" 	73.04
scalar VoIPMCoAMulti.R1.eth[0].mac 	"rx channel idle (%)" 	99.999212
scalar VoIPMCoAMulti.R1.eth[0].mac 	"rx channel utilization (%)" 	0.000788
scalar VoIPMCoAMulti.R1.eth[0].mac 	"rx channel collision (%)" 	0
scalar VoIPMCoAMulti.R1.eth[0].mac 	collisions 	0
scalar VoIPMCoAMulti.R1.eth[0].mac 	backoffs 	0
scalar VoIPMCoAMulti.R1.eth[0].encap 	"packets from higher layer" 	17
scalar VoIPMCoAMulti.R1.eth[0].encap 	"frames from MAC" 	18
scalar VoIPMCoAMulti.R1.eth[1].queue 	"packets received by queue" 	3821
scalar VoIPMCoAMulti.R1.eth[1].queue 	"packets dropped by queue" 	0
scalar VoIPMCoAMulti.R1.eth[1].mac 	"simulated time" 	200
scalar VoIPMCoAMulti.R1.eth[1].mac 	"txrate (Mb)" 	10
scalar VoIPMCoAMulti.R1.eth[1].mac 	"full duplex" 	1
scalar VoIPMCoAMulti.R1.eth[1].mac 	"frames sent" 	3821
scalar VoIPMCoAMulti.R1.eth[1].mac 	"frames rcvd" 	9
scalar VoIPMCoAMulti.R1.eth[1].mac 	"bytes sent" 	244860
scalar VoIPMCoAMulti.R1.eth[1].mac 	"bytes rcvd" 	716
scalar VoIPMCoAMulti.R1.eth[1].mac 	"frames from higher layer" 	3821
scalar VoIPMCoAMulti.R1.eth[1].mac 	"frames from higher layer dropped (iface down)" 	0
scalar VoIPMCoAMulti.R1.eth[1].mac 	"frames dropped (bit error)" 	0
scalar VoIPMCoAMulti.R1.eth[1].mac 	"frames dropped (not for us)" 	0
scalar VoIPMCoAMulti.R1.eth[1].mac 	"frames passed up to HL" 	9
scalar VoIPMCoAMulti.R1.eth[1].mac 	"PAUSE frames sent" 	0
scalar VoIPMCoAMulti.R1.eth[1].mac 	"PAUSE frames rcvd" 	0
scalar VoIPMCoAMulti.R1.eth[1].mac 	"frames/sec sent" 	19.105
scalar VoIPMCoAMulti.R1.eth[1].mac 	"frames/sec rcvd" 	0.045
scalar VoIPMCoAMulti.R1.eth[1].mac 	"bits/sec sent" 	9794.4
scalar VoIPMCoAMulti.R1.eth[1].mac 	"bits/sec rcvd" 	28.64
scalar VoIPMCoAMulti.R1.eth[1].mac 	"rx channel idle (%)" 	99.9996848
scalar VoIPMCoAMulti.R1.eth[1].mac 	"rx channel utilization (%)" 	0.0003152
scalar VoIPMCoAMulti.R1.eth[1].mac 	"rx channel collision (%)" 	0
scalar VoIPMCoAMulti.R1.eth[1].mac 	collisions 	0
scalar VoIPMCoAMulti.R1.eth[1].mac 	backoffs 	0
scalar VoIPMCoAMulti.R1.eth[1].encap 	"packets from higher layer" 	3821
scalar VoIPMCoAMulti.R1.eth[1].encap 	"frames from MAC" 	9
scalar VoIPMCoAMulti.R1.eth[2].queue 	"packets received by queue" 	3793
scalar VoIPMCoAMulti.R1.eth[2].queue 	"packets dropped by queue" 	0
scalar VoIPMCoAMulti.R1.eth[2].mac 	"simulated time" 	200
scalar VoIPMCoAMulti.R1.eth[2].mac 	"txrate (Mb)" 	10
scalar VoIPMCoAMulti.R1.eth[2].mac 	"full duplex" 	1
scalar VoIPMCoAMulti.R1.eth[2].mac 	"frames sent" 	3793
scalar VoIPMCoAMulti.R1.eth[2].mac 	"frames rcvd" 	9
scalar VoIPMCoAMulti.R1.eth[2].mac 	"bytes sent" 	243110
scalar VoIPMCoAMulti.R1.eth[2].mac 	"bytes rcvd" 	782
scalar VoIPMCoAMulti.R1.eth[2].mac 	"frames from higher layer" 	3793
scalar VoIPMCoAMulti.R1.eth[2].mac 	"frames from higher layer dropped (iface down)" 	0
scalar VoIPMCoAMulti.R1.eth[2].mac 	"frames dropped (bit error)" 	0
scalar VoIPMCoAMulti.R1.eth[2].mac 	"frames dropped (not for us)" 	0
scalar VoIPMCoAMulti.R1.eth[2].mac 	"frames passed up to HL" 	9
scalar VoIPMCoAMulti.R1.eth[2].mac 	"PAUSE frames sent" 	0
scalar VoIPMCoAMulti.R1.eth[2].mac 	"PAUSE frames rcvd" 	0
scalar VoIPMCoAMulti.R1.eth[2].mac 	"frames/sec sent" 	18.965
scalar VoIPMCoAMulti.R1.eth[2].mac 	"frames/sec rcvd" 	0.045
scalar VoIPMCoAMulti.R1.eth[2].mac 	"bits/sec sent" 	9724.4
scalar VoIPMCoAMulti.R1.eth[2].mac 	"bits/sec rcvd" 	31.28
scalar VoIPMCoAMulti.R1.eth[2].mac 	"rx channel idle (%)" 	99.9996584
scalar VoIPMCoAMulti.R1.eth[2].mac 	"rx channel utilization (%)" 	0.0003416
scalar VoIPMCoAMulti.R1.eth[2].mac 	"rx channel collision (%)" 	0
scalar VoIPMCoAMulti.R1.eth[2].mac 	collisions 	0
scalar VoIPMCoAMulti.R1.eth[2].mac 	backoffs 	0
scalar VoIPMCoAMulti.R1.eth[2].encap 	"packets from higher layer" 	3793
scalar VoIPMCoAMulti.R1.eth[2].encap 	"frames from MAC" 	9
scalar VoIPMCoAMulti.AP_1.wlan.mgmt 	"packets received by queue" 	5834
scalar VoIPMCoAMulti.AP_1.wlan.mgmt 	"packets dropped by queue" 	0
scalar VoIPMCoAMulti.AP_1.wlan.mac 	numSent 	18
scalar VoIPMCoAMulti.AP_1.wlan.mac 	numSentWithoutRetry 	18
scalar VoIPMCoAMulti.AP_1.wlan.mac 	numReceived 	17
scalar VoIPMCoAMulti.AP_1.wlan.mac 	numSentBroadcast 	5816
scalar VoIPMCoAMulti.AP_1.wlan.mac 	numReceivedBroadcast 	2
scalar VoIPMCoAMulti.AP_1.wlan.mac 	numReceivedOther 	0
scalar VoIPMCoAMulti.AP_1.wlan.mac 	numCollision 	0
scalar VoIPMCoAMulti.AP_1.wlan.mac 	numGivenUp 	0
scalar VoIPMCoAMulti.AP_1.wlan.mac 	numAckSend 	17
scalar VoIPMCoAMulti.AP_1.wlan.mac 	numRetry 	0
scalar VoIPMCoAMulti.AP_2.wlan.mgmt 	"packets received by queue" 	5800
scalar VoIPMCoAMulti.AP_2.wlan.mgmt 	"packets dropped by queue" 	0
scalar VoIPMCoAMulti.AP_2.wlan.mac 	numSent 	11
scalar VoIPMCoAMulti.AP_2.wlan.mac 	numSentWithoutRetry 	11
scalar VoIPMCoAMulti.AP_2.wlan.mac 	numReceived 	12
scalar VoIPMCoAMulti.AP_2.wlan.mac 	numSentBroadcast 	5789
scalar VoIPMCoAMulti.AP_2.wlan.mac 	numReceivedBroadcast 	1
scalar VoIPMCoAMulti.AP_2.wlan.mac 	numReceivedOther 	0
scalar VoIPMCoAMulti.AP_2.wlan.mac 	numCollision 	0
scalar VoIPMCoAMulti.AP_2.wlan.mac 	numGivenUp 	0
scalar VoIPMCoAMulti.AP_2.wlan.mac 	numAckSend 	12
scalar VoIPMCoAMulti.AP_2.wlan.mac 	numRetry 	0
scalar VoIPMCoAMulti.Rb.networkLayer.ipv6 	IPv6_numDropNonActive 	0
scalar VoIPMCoAMulti.Rb.networkLayer.ipv6 	IPv6_Forwarded 	24
scalar VoIPMCoAMulti.Rb.eth[0].queue 	"packets received by queue" 	11
scalar VoIPMCoAMulti.Rb.eth[0].queue 	"packets dropped by queue" 	0
scalar VoIPMCoAMulti.Rb.eth[0].mac 	"simulated time" 	200
scalar VoIPMCoAMulti.Rb.eth[0].mac 	"txrate (Mb)" 	10
scalar VoIPMCoAMulti.Rb.eth[0].mac 	"full duplex" 	1
scalar VoIPMCoAMulti.Rb.eth[0].mac 	"frames sent" 	11
scalar VoIPMCoAMulti.Rb.eth[0].mac 	"frames rcvd" 	11
scalar VoIPMCoAMulti.Rb.eth[0].mac 	"bytes sent" 	930
scalar VoIPMCoAMulti.Rb.eth[0].mac 	"bytes rcvd" 	982
scalar VoIPMCoAMulti.Rb.eth[0].mac 	"frames from higher layer" 	11
scalar VoIPMCoAMulti.Rb.eth[0].mac 	"frames from higher layer dropped (iface down)" 	0
scalar VoIPMCoAMulti.Rb.eth[0].mac 	"frames dropped (bit error)" 	0
scalar VoIPMCoAMulti.Rb.eth[0].mac 	"frames dropped (not for us)" 	0
scalar VoIPMCoAMulti.Rb.eth[0].mac 	"frames passed up to HL" 	11
scalar VoIPMCoAMulti.Rb.eth[0].mac 	"PAUSE frames sent" 	0
scalar VoIPMCoAMulti.Rb.eth[0].mac 	"PAUSE frames rcvd" 	0
scalar VoIPMCoAMulti.Rb.eth[0].mac 	"frames/sec sent" 	0.055
scalar VoIPMCoAMulti.Rb.eth[0].mac 	"frames/sec rcvd" 	0.055
scalar VoIPMCoAMulti.Rb.eth[0].mac 	"bits/sec sent" 	37.2
scalar VoIPMCoAMulti.Rb.eth[0].mac 	"bits/sec rcvd" 	39.28
scalar VoIPMCoAMulti.Rb.eth[0].mac 	"rx channel idle (%)" 	99.999572
scalar VoIPMCoAMulti.Rb.eth[0].mac 	"rx channel utilization (%)" 	0.000428
scalar VoIPMCoAMulti.Rb.eth[0].mac 	"rx channel collision (%)" 	0
scalar VoIPMCoAMulti.Rb.eth[0].mac 	collisions 	0
scalar VoIPMCoAMulti.Rb.eth[0].mac 	backoffs 	0
scalar VoIPMCoAMulti.Rb.eth[0].encap 	"packets from higher layer" 	11
scalar VoIPMCoAMulti.Rb.eth[0].encap 	"frames from MAC" 	11
scalar VoIPMCoAMulti.Rb.eth[1].queue 	"packets received by queue" 	13
scalar VoIPMCoAMulti.Rb.eth[1].queue 	"packets dropped by queue" 	0
scalar VoIPMCoAMulti.Rb.eth[1].mac 	"simulated time" 	200
scalar VoIPMCoAMulti.Rb.eth[1].mac 	"txrate (Mb)" 	10
scalar VoIPMCoAMulti.Rb.eth[1].mac 	"full duplex" 	0
scalar VoIPMCoAMulti.Rb.eth[1].mac 	"frames sent" 	13
scalar VoIPMCoAMulti.Rb.eth[1].mac 	"frames rcvd" 	14
scalar VoIPMCoAMulti.Rb.eth[1].mac 	"bytes sent" 	1110
scalar VoIPMCoAMulti.Rb.eth[1].mac 	"bytes rcvd" 	1122
scalar VoIPMCoAMulti.Rb.eth[1].mac 	"frames from higher layer" 	13
scalar VoIPMCoAMulti.Rb.eth[1].mac 	"frames from higher layer dropped (iface down)" 	0
scalar VoIPMCoAMulti.Rb.eth[1].mac 	"frames dropped (bit error)" 	0
scalar VoIPMCoAMulti.Rb.eth[1].mac 	"frames dropped (not for us)" 	0
scalar VoIPMCoAMulti.Rb.eth[1].mac 	"frames passed up to HL" 	14
scalar VoIPMCoAMulti.Rb.eth[1].mac 	"PAUSE frames sent" 	0
scalar VoIPMCoAMulti.Rb.eth[1].mac 	"PAUSE frames rcvd" 	0
scalar VoIPMCoAMulti.Rb.eth[1].mac 	"frames/sec sent" 	0.065
scalar VoIPMCoAMulti.Rb.eth[1].mac 	"frames/sec rcvd" 	0.07
scalar VoIPMCoAMulti.Rb.eth[1].mac 	"bits/sec sent" 	44.4
scalar VoIPMCoAMulti.Rb.eth[1].mac 	"bits/sec rcvd" 	44.88
scalar VoIPMCoAMulti.Rb.eth[1].mac 	"rx channel idle (%)" 	99.9990208
scalar VoIPMCoAMulti.Rb.eth[1].mac 	"rx channel utilization (%)" 	0.0009792
scalar VoIPMCoAMulti.Rb.eth[1].mac 	"rx channel collision (%)" 	0
scalar VoIPMCoAMulti.Rb.eth[1].mac 	collisions 	0
scalar VoIPMCoAMulti.Rb.eth[1].mac 	backoffs 	0
scalar VoIPMCoAMulti.Rb.eth[1].encap 	"packets from higher layer" 	13
scalar VoIPMCoAMulti.Rb.eth[1].encap 	"frames from MAC" 	14
